@<TRIPOS>MOLECULE
*****
 20 19 0 0 0
SMALL
GASTEIGER

@<TRIPOS>ATOM
1 N -4.6580 -0.2728 -0.0863 N.pl3 1 UNL1 -0.20869151086347318 
2 C -5.0607 1.0970 -0.3615 C.3 1 UNL1 -0.2449680324790989 
3 C -5.6908 -1.0890 0.5472 C.3 1 UNL1 -0.16885956524277881 
4 H -1.9679 -2.1551 0.7798 H 1 UNL1 0.3626926187201368 
5 H -4.2062 1.7604 -0.5214 H 1 UNL1 0.10369601586027155 
6 H -5.6904 1.1258 -1.2575 H 1 UNL1 0.10369601586027155 
7 H -5.6306 1.5135 0.4758 H 1 UNL1 0.10369601586027155 
8 H -6.1479 -0.5536 1.3872 H 1 UNL1 0.0888758900032347 
9 H -6.4764 -1.3427 -0.1722 H 1 UNL1 0.0888758900032347 
10 H -5.2690 -2.0163 0.9519 H 1 UNL1 0.0888758900032347 
11 C -3.6222 -0.8758 -0.7692 C.cat 1 UNL1 0.7325649261745215 
12 N -0.5631 0.5911 0.3546 N.pl3 1 UNL1 -0.9971919290770739 
13 H -2.4846 0.7468 -0.8081 H 1 UNL1 0.3779756035370299 
14 N -2.4131 -0.2431 -0.6493 N.pl3 1 UNL1 -0.7248127660886396 
15 N -1.2326 -1.4735 1.0132 N.pl3 1 UNL1 -0.9318332821821045 
16 N -3.7406 -1.9965 -1.3970 N.pl3 1 UNL1 -0.9074178857449381 
17 C -1.4183 -0.4541 0.2517 C.cat 1 UNL1 0.9393944501601079 
18 H -4.7226 -2.2791 -1.3864 H 1 UNL1 0.39531865822788265 
19 H 0.0075 0.6700 -0.4809 H 1 UNL1 0.41413481790884443 
20 H 0.0707 0.3850 1.1241 H 1 UNL1 0.38397817935906525 
@<TRIPOS>BOND
     1     1     2    1
     2     1     3    1
     3     1    11    1
     4     2     5    1
     5     2     6    1
     6     2     7    1
     7     3     8    1
     8     3     9    1
     9     3    10    1
    10     4    15    1
    11    11    14    1
    12    11    16    2
    13    12    17    1
    14    12    19    1
    15    12    20    1
    16    13    14    1
    17    14    17    1
    18    15    17    2
    19    16    18    1
