@<TRIPOS>MOLECULE
*****
   20    19     1     0     0
SMALL
No Charge or Current Charge


@<TRIPOS>ATOM
      1 N           -4.6580    -0.2730    -0.0860 NT         1 UNL      -0.208692
      2 C           -5.0610     1.0970    -0.3610 CT         1 UNL      -0.244968
      3 C1          -5.6910    -1.0890     0.5470 CT         1 UNL      -0.168860
      4 H           -1.9680    -2.1550     0.7800 H          1 UNL       0.362693
      5 H1          -4.2060     1.7600    -0.5210 H1         1 UNL       0.103696
      6 H2          -5.6900     1.1260    -1.2580 H1         1 UNL       0.103696
      7 H3          -5.6310     1.5140     0.4760 H1         1 UNL       0.103696
      8 H4          -6.1480    -0.5540     1.3870 H1         1 UNL       0.088876
      9 H5          -6.4760    -1.3430    -0.1720 H1         1 UNL       0.088876
     10 H6          -5.2690    -2.0160     0.9520 H1         1 UNL       0.088876
     11 C2          -3.6220    -0.8760    -0.7690 CM         1 UNL       0.732565
     12 N1          -0.5630     0.5910     0.3550 NT         1 UNL      -0.997192
     13 H7          -2.4850     0.7470    -0.8080 H          1 UNL       0.377976
     14 N2          -2.4130    -0.2430    -0.6490 NT         1 UNL      -0.724813
     15 N3          -1.2330    -1.4740     1.0130 N2         1 UNL      -0.931833
     16 N4          -3.7410    -1.9960    -1.3970 N2         1 UNL      -0.907418
     17 C3          -1.4180    -0.4540     0.2520 CM         1 UNL       0.939394
     18 H8          -4.7230    -2.2790    -1.3860 H          1 UNL       0.395319
     19 H9           0.0070     0.6700    -0.4810 H          1 UNL       0.414135
     20 H10          0.0710     0.3850     1.1240 H          1 UNL       0.383978
@<TRIPOS>BOND
     1     1     2 1   
     2     1     3 1   
     3     1    11 1   
     4     2     5 1   
     5     2     6 1   
     6     2     7 1   
     7     3     8 1   
     8     3     9 1   
     9     3    10 1   
    10     4    15 1   
    11    11    14 1   
    12    11    16 2   
    13    12    17 1   
    14    12    19 1   
    15    12    20 1   
    16    13    14 1   
    17    14    17 1   
    18    15    17 2   
    19    16    18 1   
@<TRIPOS>SUBSTRUCTURE
     1 UNL         1 TEMP              0 ****  ****    0 ROOT
